<?xml version="1.0" encoding="UTF-8"?>

<!-- generated on 2025-12-04 15:24:16.710465 by randomTrips.py v1_24_0+0000-b72eb3fabc8
<configuration>
    <net-file value="single-intersection.net.xml"/>
    <route-file value="single-intersection-gen.rou.xml"/>
    <end value="1000.0"/>
    <period value="10.0"/>
</configuration>
-->

<!-- generated on 2025-12-04 15:24:16 by Eclipse SUMO duarouter Version 1.24.0
<duarouterConfiguration xmlns:xsi="http://www.w3.org/2001/XMLSchema-instance" xsi:noNamespaceSchemaLocation="http://sumo.dlr.de/xsd/duarouterConfiguration.xsd">

    <input>
        <net-file value="single-intersection.net.xml"/>
        <route-files value="trips.trips.xml"/>
    </input>

    <output>
        <output-file value="single-intersection-gen.rou.xml"/>
        <alternatives-output value="NUL"/>
    </output>

    <time>
        <begin value="0"/>
        <end value="1000.0"/>
    </time>

    <report>
        <no-warnings value="true"/>
        <ignore-errors value="true"/>
        <no-step-log value="true"/>
    </report>

</duarouterConfiguration>
-->

<routes xmlns:xsi="http://www.w3.org/2001/XMLSchema-instance" xsi:noNamespaceSchemaLocation="http://sumo.dlr.de/xsd/routes_file.xsd">
</routes>
