<?xml version="1.0" encoding="UTF-8"?>

<!-- generated on 2025-12-04 15:24:16.261257 by randomTrips.py v1_24_0+0000-b72eb3fabc8
<configuration>
    <net-file value="single-intersection.net.xml"/>
    <route-file value="single-intersection-gen.rou.xml"/>
    <end value="1000.0"/>
    <period value="10.0"/>
</configuration>
-->

<routes xmlns:xsi="http://www.w3.org/2001/XMLSchema-instance" xsi:noNamespaceSchemaLocation="http://sumo.dlr.de/xsd/routes_file.xsd">
</routes>
